-------------------------------------------------------
          Amber 18 PMEMD                              2018
          -------------------------------------------------------

  [-O]verwriting output

File Assignments:

 Here is the input file:

Production
&cntrl
imin=0,
ntx=1,
irest=0,
nstlim=100000,
dt=0.002,
ntf=2,
ntc=2,
tempi=300.0,
temp0=300.0,
ntpr=200,
ntwx=200,
cut=8.5,
ntb=2,
ntp=1,
ntt=3,
gamma_ln=2.0,
ig=-1,
igb=0,
taup=1,
/

Note: ig = -1. Setting random seed to   715587 based on wallclock time in
      microseconds.

--------------------------------------------------------------------------------
   1.  RESOURCE   USE:
--------------------------------------------------------------------------------

 getting box info from netcdf restart file
 NATOM  =   20215 NTYPES =      17 NBONH =   19178 MBONA  =    1053
 NTHETH =    2229 MTHETA =    1426 NPHIH =    4677 MPHIA  =    4394
 NHPARM =       0 NPARM  =       0 NNB   =   35315 NRES   =    6200
 NBONA  =    1053 NTHETA =    1426 NPHIA =    4394 NUMBND =      66
 NUMANG =     151 NPTRA  =     193 NATYP =      34 NPHB   =       1
 IFBOX  =       2 NMXRS  =      24 IFCAP =       0 NEXTRA =       0
 NCOPY  =       0

     BOX TYPE: TRUNCATED OCTAHEDRON

--------------------------------------------------------------------------------
   2.  CONTROL  DATA  FOR  THE  RUN
--------------------------------------------------------------------------------

default_name

General flags:
     imin    =       0, nmropt  =       0

Nature and format of input:
     ntx     =       1, irest   =       0, ntrx    =       1

Nature and format of output:
     ntxo    =       2, ntpr    =     200, ntrx    =       1, ntwr    =  100000
     iwrap   =       0, ntwx    =     200, ntwv    =       0, ntwe    =       0
     ioutfm  =       1, ntwprt  =       0, idecomp =       0, rbornstat=      0

Potential function:
     ntf     =       2, ntb     =       2, igb     =       0, nsnb    =      25
     ipol    =       0, gbsa    =       0, iesp    =       0
     dielc   =   1.00000, cut     =   8.50000, intdiel =   1.00000

Frozen or restrained atoms:
     ibelly  =       0, ntr     =       0

Molecular dynamics:
     nstlim  =    100000, nscm    =      1000, nrespa  =         1
     t       =   0.00000, dt      =   0.00200, vlimit  =  -1.00000

Langevin dynamics temperature regulation:
     ig      =  715587
     temp0   = 300.00000, tempi   = 300.00000, gamma_ln=   2.00000

Pressure regulation:
     ntp     =       1
     pres0   =   1.00000, comp    =  44.60000, taup    =   1.00000

SHAKE:
     ntc     =       2, jfastw  =       0
     tol     =   0.00001

Ewald parameters:
     verbose =       0, ew_type =       0, nbflag  =       1, use_pme =       1
     vdwmeth =       1, eedmeth =       1, netfrc  =       1
     Box X =   64.051   Box Y =   64.051   Box Z =   64.051
     Alpha =  109.471   Beta  =  109.471   Gamma =  109.471
     NFFT1 =   64       NFFT2 =   64       NFFT3 =   64
     Cutoff=    8.500   Tol   =0.100E-04
     Ewald Coefficient =  0.32692
     Interpolation order =    4

--------------------------------------------------------------------------------
   3.  ATOMIC COORDINATES AND VELOCITIES
--------------------------------------------------------------------------------

default_name
 begin time read from input coords =    16.604 ps

 Number of triangulated 3-point waters found:     6062

     Sum of charges from parm topology file =  -0.00000007
     Forcing neutrality...

--------------------------------------------------------------------------------
   4.  RESULTS
 NSTEP =        0   TIME(PS) =       0.000  TEMP(K) =   441.00  PRESS =  -280.5
 Etot   =    -45255.5795  EKtot   =     18169.7112  EPtot      =    -63425.2907
 BOND   =       410.3759  ANGLE   =       966.9483  DIHED      =      1616.9997
 1-4 NB =       477.5680  1-4 EEL =      3051.2510  VDWAALS    =      7152.0394
 EELEC  =    -77100.4729  EHBOND  =         0.0000  RESTRAINT  =         0.0000
 EKCMT  =      5481.1434  VIRIAL  =      6706.0570  VOLUME     =    202284.6919
                                                    Density    =         1.0195
 ------------------------------------------------------------------------------

      A V E R A G E S   O V E R     500 S T E P S

 NSTEP =   100000   TIME(PS) =     200.000  TEMP(K) =   300.01  PRESS =    -0.5
 Etot   =    -51230.6853  EKtot   =     12360.7795  EPtot      =    -63591.4648
 BOND   =       410.7420  ANGLE   =       989.4193  DIHED      =      1629.8730
 1-4 NB =       461.7115  1-4 EEL =      3024.4571  VDWAALS    =      7397.7371
 EELEC  =    -77505.4047  EHBOND  =         0.0000  RESTRAINT  =         0.0000
 EKCMT  =      5450.3067  VIRIAL  =      5452.3779  VOLUME     =    201912.2846
                                                    Density    =         1.0214
 ------------------------------------------------------------------------------

      R M S  F L U C T U A T I O N S

 NSTEP =   100000   TIME(PS) =     200.000  TEMP(K) =     2.10  PRESS =   148.7
 Etot   =       152.4933  EKtot   =        86.3776  EPtot      =       126.6814
 BOND   =        16.9914  ANGLE   =        25.2688  DIHED      =        14.6882
 1-4 NB =         9.0447  1-4 EEL =        27.5876  VDWAALS    =       108.1160
 EELEC  =       190.3249  EHBOND  =         0.0000  RESTRAINT  =         0.0000
 EKCMT  =        57.8703  VIRIAL  =       646.2863  VOLUME     =       357.6988
                                                    Density    =         0.0018
 ------------------------------------------------------------------------------
