-------------------------------------------------------
          Amber 18 PMEMD                              2018
          -------------------------------------------------------

  [-O]verwriting output

File Assignments:

 Here is the input file:

Production
&cntrl
imin=0,
ntx=1,
irest=0,
nstlim=100000,
dt=0.002,
ntf=2,
ntc=2,
tempi=300.0,
temp0=300.0,
ntpr=200,
ntwx=200,
cut=8.5,
ntb=2,
ntp=1,
ntt=3,
gamma_ln=2.0,
ig=-1,
igb=0,
taup=1,
/

Note: ig = -1. Setting random seed to   576857 based on wallclock time in
      microseconds.

--------------------------------------------------------------------------------
   1.  RESOURCE   USE:
--------------------------------------------------------------------------------

 getting box info from netcdf restart file
 NATOM  =   17939 NTYPES =      17 NBONH =   16902 MBONA  =    1067
 NTHETH =    2210 MTHETA =    1447 NPHIH =    4570 MPHIA  =    4498
 NHPARM =       0 NPARM  =       0 NNB   =   32289 NRES   =    5439
 NBONA  =    1067 NTHETA =    1447 NPHIA =    4498 NUMBND =      66
 NUMANG =     151 NPTRA  =     193 NATYP =      34 NPHB   =       1
 IFBOX  =       2 NMXRS  =      24 IFCAP =       0 NEXTRA =       0
 NCOPY  =       0

     BOX TYPE: TRUNCATED OCTAHEDRON

--------------------------------------------------------------------------------
   2.  CONTROL  DATA  FOR  THE  RUN
--------------------------------------------------------------------------------

default_name

General flags:
     imin    =       0, nmropt  =       0

Nature and format of input:
     ntx     =       1, irest   =       0, ntrx    =       1

Nature and format of output:
     ntxo    =       2, ntpr    =     200, ntrx    =       1, ntwr    =  100000
     iwrap   =       0, ntwx    =     200, ntwv    =       0, ntwe    =       0
     ioutfm  =       1, ntwprt  =       0, idecomp =       0, rbornstat=      0

Potential function:
     ntf     =       2, ntb     =       2, igb     =       0, nsnb    =      25
     ipol    =       0, gbsa    =       0, iesp    =       0
     dielc   =   1.00000, cut     =   8.50000, intdiel =   1.00000

Frozen or restrained atoms:
     ibelly  =       0, ntr     =       0

Molecular dynamics:
     nstlim  =    100000, nscm    =      1000, nrespa  =         1
     t       =   0.00000, dt      =   0.00200, vlimit  =  -1.00000

Langevin dynamics temperature regulation:
     ig      =  576857
     temp0   = 300.00000, tempi   = 300.00000, gamma_ln=   2.00000

Pressure regulation:
     ntp     =       1
     pres0   =   1.00000, comp    =  44.60000, taup    =   1.00000

SHAKE:
     ntc     =       2, jfastw  =       0
     tol     =   0.00001

Ewald parameters:
     verbose =       0, ew_type =       0, nbflag  =       1, use_pme =       1
     vdwmeth =       1, eedmeth =       1, netfrc  =       1
     Box X =   61.493   Box Y =   61.493   Box Z =   61.493
     Alpha =  109.471   Beta  =  109.471   Gamma =  109.471
     NFFT1 =   64       NFFT2 =   64       NFFT3 =   64
     Cutoff=    8.500   Tol   =0.100E-04
     Ewald Coefficient =  0.32692
     Interpolation order =    4

--------------------------------------------------------------------------------
   3.  ATOMIC COORDINATES AND VELOCITIES
--------------------------------------------------------------------------------

default_name
 begin time read from input coords =    53.472 ps

 Number of triangulated 3-point waters found:     5309

     Sum of charges from parm topology file =  -0.00000008
     Forcing neutrality...

--------------------------------------------------------------------------------
   4.  RESULTS
 NSTEP =        0   TIME(PS) =       0.000  TEMP(K) =   434.42  PRESS =   112.9
 Etot   =    -38672.3926  EKtot   =     15933.8291  EPtot      =    -54606.2217
 BOND   =       393.8358  ANGLE   =      1023.9736  DIHED      =      1597.8974
 1-4 NB =       447.4838  1-4 EEL =      5218.5486  VDWAALS    =      6421.2804
 EELEC  =    -69709.2413  EHBOND  =         0.0000  RESTRAINT  =         0.0000
 EKCMT  =      4780.2906  VIRIAL  =      4343.8996  VOLUME     =    179004.6777
                                                    Density    =         1.0248
 ------------------------------------------------------------------------------

      A V E R A G E S   O V E R     500 S T E P S

 NSTEP =   100000   TIME(PS) =     200.000  TEMP(K) =   299.76  PRESS =    -6.5
 Etot   =    -43529.0159  EKtot   =     10994.9393  EPtot      =    -54523.9552
 BOND   =       402.9082  ANGLE   =      1034.4019  DIHED      =      1610.2680
 1-4 NB =       464.4368  1-4 EEL =      5258.2264  VDWAALS    =      6278.4149
 EELEC  =    -69572.6115  EHBOND  =         0.0000  RESTRAINT  =         0.0000
 EKCMT  =      4761.4788  VIRIAL  =      4786.5083  VOLUME     =    178827.1419
                                                    Density    =         1.0259
 ------------------------------------------------------------------------------

      R M S  F L U C T U A T I O N S

 NSTEP =   100000   TIME(PS) =     200.000  TEMP(K) =     2.18  PRESS =   161.5
 Etot   =       138.9090  EKtot   =        79.8869  EPtot      =       111.1859
 BOND   =        17.3622  ANGLE   =        24.8208  DIHED      =        13.8431
 1-4 NB =         8.8690  1-4 EEL =        24.5720  VDWAALS    =       101.3400
 EELEC  =       162.1554  EHBOND  =         0.0000  RESTRAINT  =         0.0000
 EKCMT  =        51.7424  VIRIAL  =       624.8843  VOLUME     =       334.6657
                                                    Density    =         0.0019
 ------------------------------------------------------------------------------
