-------------------------------------------------------
          Amber 18 PMEMD                              2018
          -------------------------------------------------------

  [-O]verwriting output

File Assignments:

 Here is the input file:

Production
&cntrl
imin=0,
ntx=1,
irest=0,
nstlim=100000,
dt=0.002,
ntf=2,
ntc=2,
tempi=300.0,
temp0=300.0,
ntpr=200,
ntwx=200,
cut=8.5,
ntb=2,
ntp=1,
ntt=3,
gamma_ln=2.0,
ig=-1,
igb=0,
taup=1,
/

Note: ig = -1. Setting random seed to   939469 based on wallclock time in
      microseconds.

--------------------------------------------------------------------------------
   1.  RESOURCE   USE:
--------------------------------------------------------------------------------

 getting box info from netcdf restart file
 NATOM  =   18299 NTYPES =      17 NBONH =   17264 MBONA  =    1065
 NTHETH =    2210 MTHETA =    1443 NPHIH =    4563 MPHIA  =    4470
 NHPARM =       0 NPARM  =       0 NNB   =   32758 NRES   =    5559
 NBONA  =    1065 NTHETA =    1443 NPHIA =    4470 NUMBND =      66
 NUMANG =     151 NPTRA  =     193 NATYP =      34 NPHB   =       1
 IFBOX  =       2 NMXRS  =      24 IFCAP =       0 NEXTRA =       0
 NCOPY  =       0

     BOX TYPE: TRUNCATED OCTAHEDRON

--------------------------------------------------------------------------------
   2.  CONTROL  DATA  FOR  THE  RUN
--------------------------------------------------------------------------------

default_name

General flags:
     imin    =       0, nmropt  =       0

Nature and format of input:
     ntx     =       1, irest   =       0, ntrx    =       1

Nature and format of output:
     ntxo    =       2, ntpr    =     200, ntrx    =       1, ntwr    =  100000
     iwrap   =       0, ntwx    =     200, ntwv    =       0, ntwe    =       0
     ioutfm  =       1, ntwprt  =       0, idecomp =       0, rbornstat=      0

Potential function:
     ntf     =       2, ntb     =       2, igb     =       0, nsnb    =      25
     ipol    =       0, gbsa    =       0, iesp    =       0
     dielc   =   1.00000, cut     =   8.50000, intdiel =   1.00000

Frozen or restrained atoms:
     ibelly  =       0, ntr     =       0

Molecular dynamics:
     nstlim  =    100000, nscm    =      1000, nrespa  =         1
     t       =   0.00000, dt      =   0.00200, vlimit  =  -1.00000

Langevin dynamics temperature regulation:
     ig      =  939469
     temp0   = 300.00000, tempi   = 300.00000, gamma_ln=   2.00000

Pressure regulation:
     ntp     =       1
     pres0   =   1.00000, comp    =  44.60000, taup    =   1.00000

SHAKE:
     ntc     =       2, jfastw  =       0
     tol     =   0.00001

Ewald parameters:
     verbose =       0, ew_type =       0, nbflag  =       1, use_pme =       1
     vdwmeth =       1, eedmeth =       1, netfrc  =       1
     Box X =   61.919   Box Y =   61.919   Box Z =   61.919
     Alpha =  109.471   Beta  =  109.471   Gamma =  109.471
     NFFT1 =   64       NFFT2 =   64       NFFT3 =   64
     Cutoff=    8.500   Tol   =0.100E-04
     Ewald Coefficient =  0.32692
     Interpolation order =    4

--------------------------------------------------------------------------------
   3.  ATOMIC COORDINATES AND VELOCITIES
--------------------------------------------------------------------------------

default_name
 begin time read from input coords =    88.192 ps

 Number of triangulated 3-point waters found:     5430

     Sum of charges from parm topology file =  -0.00000007
     Forcing neutrality...

--------------------------------------------------------------------------------
   4.  RESULTS
 NSTEP =        0   TIME(PS) =       0.000  TEMP(K) =   439.99  PRESS =   -81.1
 Etot   =    -39436.2435  EKtot   =     16452.1964  EPtot      =    -55888.4399
 BOND   =       402.7619  ANGLE   =      1110.1412  DIHED      =      1591.6463
 1-4 NB =       458.2562  1-4 EEL =      5011.8897  VDWAALS    =      6621.9897
 EELEC  =    -71085.1249  EHBOND  =         0.0000  RESTRAINT  =         0.0000
 EKCMT  =      4915.0836  VIRIAL  =      5235.1419  VOLUME     =    182749.3915
                                                    Density    =         1.0234
 ------------------------------------------------------------------------------

      A V E R A G E S   O V E R     500 S T E P S

 NSTEP =   100000   TIME(PS) =     200.000  TEMP(K) =   300.03  PRESS =    13.9
 Etot   =    -44589.4073  EKtot   =     11218.7897  EPtot      =    -55808.1969
 BOND   =       403.4083  ANGLE   =      1057.6134  DIHED      =      1610.7594
 1-4 NB =       459.8200  1-4 EEL =      5017.4339  VDWAALS    =      6448.7901
 EELEC  =    -70806.0219  EHBOND  =         0.0000  RESTRAINT  =         0.0000
 EKCMT  =      4877.7182  VIRIAL  =      4822.7926  VOLUME     =    182537.5038
                                                    Density    =         1.0246
 ------------------------------------------------------------------------------

      R M S  F L U C T U A T I O N S

 NSTEP =   100000   TIME(PS) =     200.000  TEMP(K) =     2.24  PRESS =   161.6
 Etot   =       140.6204  EKtot   =        83.6917  EPtot      =       112.8085
 BOND   =        16.9314  ANGLE   =        24.9636  DIHED      =        14.2441
 1-4 NB =         9.2977  1-4 EEL =        23.2681  VDWAALS    =       101.9714
 EELEC  =       169.0817  EHBOND  =         0.0000  RESTRAINT  =         0.0000
 EKCMT  =        52.9632  VIRIAL  =       637.7029  VOLUME     =       311.6807
                                                    Density    =         0.0017
 ------------------------------------------------------------------------------
