-------------------------------------------------------
          Amber 18 PMEMD                              2018
          -------------------------------------------------------

  [-O]verwriting output

File Assignments:

 Here is the input file:

Production
&cntrl
imin=0,
ntx=1,
irest=0,
nstlim=100000,
dt=0.002,
ntf=2,
ntc=2,
tempi=300.0,
temp0=300.0,
ntpr=200,
ntwx=200,
cut=8.5,
ntb=2,
ntp=1,
ntt=3,
gamma_ln=2.0,
ig=-1,
igb=0,
taup=1,
/

Note: ig = -1. Setting random seed to   405768 based on wallclock time in
      microseconds.

--------------------------------------------------------------------------------
   1.  RESOURCE   USE:
--------------------------------------------------------------------------------

 getting box info from netcdf restart file
 NATOM  =   18028 NTYPES =      17 NBONH =   16993 MBONA  =    1063
 NTHETH =    2199 MTHETA =    1443 NPHIH =    4568 MPHIA  =    4482
 NHPARM =       0 NPARM  =       0 NNB   =   32374 NRES   =    5471
 NBONA  =    1063 NTHETA =    1443 NPHIA =    4482 NUMBND =      66
 NUMANG =     151 NPTRA  =     193 NATYP =      34 NPHB   =       1
 IFBOX  =       2 NMXRS  =      24 IFCAP =       0 NEXTRA =       0
 NCOPY  =       0

     BOX TYPE: TRUNCATED OCTAHEDRON

--------------------------------------------------------------------------------
   2.  CONTROL  DATA  FOR  THE  RUN
--------------------------------------------------------------------------------

default_name

General flags:
     imin    =       0, nmropt  =       0

Nature and format of input:
     ntx     =       1, irest   =       0, ntrx    =       1

Nature and format of output:
     ntxo    =       2, ntpr    =     200, ntrx    =       1, ntwr    =  100000
     iwrap   =       0, ntwx    =     200, ntwv    =       0, ntwe    =       0
     ioutfm  =       1, ntwprt  =       0, idecomp =       0, rbornstat=      0

Potential function:
     ntf     =       2, ntb     =       2, igb     =       0, nsnb    =      25
     ipol    =       0, gbsa    =       0, iesp    =       0
     dielc   =   1.00000, cut     =   8.50000, intdiel =   1.00000

Frozen or restrained atoms:
     ibelly  =       0, ntr     =       0

Molecular dynamics:
     nstlim  =    100000, nscm    =      1000, nrespa  =         1
     t       =   0.00000, dt      =   0.00200, vlimit  =  -1.00000

Langevin dynamics temperature regulation:
     ig      =  405768
     temp0   = 300.00000, tempi   = 300.00000, gamma_ln=   2.00000

Pressure regulation:
     ntp     =       1
     pres0   =   1.00000, comp    =  44.60000, taup    =   1.00000

SHAKE:
     ntc     =       2, jfastw  =       0
     tol     =   0.00001

Ewald parameters:
     verbose =       0, ew_type =       0, nbflag  =       1, use_pme =       1
     vdwmeth =       1, eedmeth =       1, netfrc  =       1
     Box X =   61.622   Box Y =   61.622   Box Z =   61.622
     Alpha =  109.471   Beta  =  109.471   Gamma =  109.471
     NFFT1 =   64       NFFT2 =   64       NFFT3 =   64
     Cutoff=    8.500   Tol   =0.100E-04
     Ewald Coefficient =  0.32692
     Interpolation order =    4

--------------------------------------------------------------------------------
   3.  ATOMIC COORDINATES AND VELOCITIES
--------------------------------------------------------------------------------

default_name
 begin time read from input coords =     1.478 ps

 Number of triangulated 3-point waters found:     5340

     Sum of charges from parm topology file =  -0.00000008
     Forcing neutrality...

--------------------------------------------------------------------------------
   4.  RESULTS
 NSTEP =        0   TIME(PS) =       0.000  TEMP(K) =   436.63  PRESS =   168.5
 Etot   =    -38754.2322  EKtot   =     16091.3898  EPtot      =    -54845.6220
 BOND   =       409.2220  ANGLE   =       983.4290  DIHED      =      1602.6985
 1-4 NB =       469.7010  1-4 EEL =      5112.1559  VDWAALS    =      6413.1737
 EELEC  =    -69836.0021  EHBOND  =         0.0000  RESTRAINT  =         0.0000
 EKCMT  =      4776.6474  VIRIAL  =      4121.2195  VOLUME     =    180126.5444
                                                    Density    =         1.0234
 ------------------------------------------------------------------------------

      A V E R A G E S   O V E R     500 S T E P S

 NSTEP =   100000   TIME(PS) =     200.000  TEMP(K) =   299.93  PRESS =    -7.9
 Etot   =    -43905.0731  EKtot   =     11053.6337  EPtot      =    -54958.7069
 BOND   =       400.3858  ANGLE   =      1031.6980  DIHED      =      1620.5164
 1-4 NB =       464.9624  1-4 EEL =      5112.3527  VDWAALS    =      6323.1884
 EELEC  =    -69911.8105  EHBOND  =         0.0000  RESTRAINT  =         0.0000
 EKCMT  =      4790.3054  VIRIAL  =      4820.8552  VOLUME     =    179824.6351
                                                    Density    =         1.0251
 ------------------------------------------------------------------------------

      R M S  F L U C T U A T I O N S

 NSTEP =   100000   TIME(PS) =     200.000  TEMP(K) =     2.15  PRESS =   172.8
 Etot   =       150.0871  EKtot   =        79.3006  EPtot      =       118.8892
 BOND   =        16.6225  ANGLE   =        24.2564  DIHED      =        13.9256
 1-4 NB =         8.8328  1-4 EEL =        23.5927  VDWAALS    =       101.7496
 EELEC  =       169.7188  EHBOND  =         0.0000  RESTRAINT  =         0.0000
 EKCMT  =        52.9421  VIRIAL  =       672.0239  VOLUME     =       342.3046
                                                    Density    =         0.0020
 ------------------------------------------------------------------------------
